$----------------------------------------------------------------------
$ 0.05756m = x-position of the origin of the body axis system 
$            with respect to the leading edge
$
$ All nodes of this model are specified with respect to the ACRA 
$ as is done in the updated UM&NAST input file from 11/5/2015
$
$----------------------------------------------------------------------
$ DEFINITION OF BOUNDARY CONDITIONS
$----------------------------------------------------------------------
$ Boundary condition: clamped center of mass
$----------------------------------------------------------------------
$SPC1           1  123456    5001
$----------------------------------------------------------------------
$ DEFINITION OF MATERIALS AND PROPERTIES
$----------------------------------------------------------------------
$ Material for wing (non-stiff) elements
$----------------------------------------------------------------------
$MAT1*               5000      4.281654+9   1609661654.13
MAT1*               5000      4.317000+9   1710000000.
$----------------------------------------------------------------------
$ Beam property for wing (non-stiff) elements
$----------------------------------------------------------------------
$<-----><------><------><------><------><------><------><------><------>
PBEAM       5000    50005.0000-41.4833-62.6158-8-1.082-83.4666-8        +
+
        YES     1.0     5.0000-41.4833-62.6158-8-1.082-83.4666-8        +
+
             9+2     9+2
$----------------------------------------------------------------------
$ DEFINITION OF MEMBERS
$----------------------------------------------------------------------
$ Member PODC: fairing center 
$----------------------------------------------------------------------
GRID        1000            -0.1   0.0   0.0                                
GRID        1001         -0.06120.003974-0.0168                                
$<-----><------><------><------><------><------><------><------><------>
RBAR1       1000    5001    1000    
RBAR1       1001    5001    1001    
$<-----><------><------><------><------><------><------><------><------>
CONM2      10000    1000         0.3746     0.0     0.0     0.0         +
+        8.902-4        1.1535-3                 8.902-4
$<-----><------><------><------><------><------><------><------><------>
CONM2      10010    1001         1.0462     0.0     0.0     0.0         +
+        2.816-3 2.322-4 1.476-2   4.5-4 2.267-5 2.503-4
$----------------------------------------------------------------------
$ Member BC: boom center 
$----------------------------------------------------------------------
GRID        2000           0.553      0.      0.                                
$<-----><------><------><------><------><------><------><------><------>
RBAR1       2000    5001    2000    
RBAR1       2200    2000    3000
$<-----><------><------><------><------><------><------><------><------>
CONM2      20000    2000        0.047447    0.0     0.0     0.0         +
+             0.        4.8366-3                4.8366-3
$----------------------------------------------------------------------
$ Member CTAILL: tail center lower (left) part
$----------------------------------------------------------------------
$<-----><------><------><------><------><------><------><------><------>
GRID        3000          1.0916    0.   0.
GRID        3001          1.0916    0.  -0.03625
GRID        3002          1.0916    0.  -0.0725
GRID        3003          1.0916    0.  -0.10875
GRID        3004          1.0916    0.  -0.145
$<-----><------><------><------><------><------><------><------><------>
RBAR1       3002    3000    3001
RBAR1       3003    3001    3002
RBAR1       3004    3002    3003
RBAR1       3005    3003    3004
$<-----><------><------><------><------><------><------><------><------>
$ This CONM2 is for the mass distribution. 
$ It includes the rotational inertia about the c.g, 
$ which is (1./12.) * (M * l^2), 
$ and the inertia values given in the input files for the mass distribution. 
$ Caution: The inertia values given for the mass distribution are per length!
$<-----><------><------><------><------><------><------><------><------>
CONM2      30000    3002        0.037903    0.0     0.0     0.0         +
+       6.6832-5        8.9579-5                2.2747-5
$----------------------------------------------------------------------
$ Member CTAILR: tail center upper (right) part
$----------------------------------------------------------------------
GRID        4002          1.0916   0.      0.06
GRID        4003          1.0916   0.      0.12
GRID        4004          1.0916   0.      0.18
GRID        4005          1.0916   0.      0.24
$<-----><------><------><------><------><------><------><------><------>
RBAR1       4003    3000    4002
RBAR1       4004    4002    4003
RBAR1       4005    4003    4004
RBAR1       4006    4004    4005
$<-----><------><------><------><------><------><------><------><------>
CONM2      40000    4003        0.062736    0.0     0.0     0.0         +
+       3.0183-4        3.3948-4                 3.765-5
$----------------------------------------------------------------------
$ Member WR1: main wing right side part 1
$----------------------------------------------------------------------
GRID        5001              0.      0.      0.                                 
GRID        5002              0.      1.      0.                                 
GRID        5011              0.     0.1      0.
GRID        5012              0.     0.2      0.
GRID        5013              0.     0.3      0.
GRID        5014              0.     0.4      0.
GRID        5015              0.     0.5      0.
GRID        5016              0.     0.6      0.
GRID        5017              0.     0.7      0.
GRID        5018              0.     0.8      0.
GRID        5019              0.     0.9      0.
$<-----><------><------><------><------><------><------><------><------>
$ GRIDS for CONMs
$<-----><------><------><------><------><------><------><------><------>
GRID        5110         -2.94-2     0.0      0.
GRID        5111         -2.94-2     0.1      0.
GRID        5112         -2.94-2     0.2      0.
GRID        5113         -2.94-2     0.3      0.
GRID        5114         -2.94-2     0.4      0.
GRID        5115         -2.94-2     0.5      0.
GRID        5116         -2.94-2     0.6      0.
GRID        5117         -2.94-2     0.7      0.
GRID        5118         -2.94-2     0.8      0.
GRID        5119         -2.94-2     0.9      0.
GRID        5120         -2.94-2     1.0      0.
$<-----><------><------><------><------><------><------><------><------>
CBEAM       5101    5000    5001    5011     -1.      0.      0.
CBEAM       5102    5000    5011    5012     -1.      0.      0.
CBEAM       5103    5000    5012    5013     -1.      0.      0.
CBEAM       5104    5000    5013    5014     -1.      0.      0.
CBEAM       5105    5000    5014    5015     -1.      0.      0.
CBEAM       5106    5000    5015    5016     -1.      0.      0.
CBEAM       5107    5000    5016    5017     -1.      0.      0.
CBEAM       5108    5000    5017    5018     -1.      0.      0.
CBEAM       5109    5000    5018    5019     -1.      0.      0.
CBEAM       5110    5000    5019    5002     -1.      0.      0.
$<-----><------><------><------><------><------><------><------><------>
$ beams for attaching the CONMs
$<-----><------><------><------><------><------><------><------><------>
RBAR1       5200    5001    5110      
RBAR1       5201    5011    5111      
RBAR1       5202    5012    5112      
RBAR1       5203    5013    5113      
RBAR1       5204    5014    5114      
RBAR1       5205    5015    5115      
RBAR1       5206    5016    5116      
RBAR1       5207    5017    5117      
RBAR1       5208    5018    5118      
RBAR1       5209    5019    5119      
RBAR1       5210    5002    5120      
$<-----><------><------><------><------><------><------><------><------>
$ masses for adjusting distributed inertia properties
$<-----><------><------><------><------><------><------><------><------>
CONM2      51010    5110          1.97-2     0.0     0.0     0.0        +
+       1.7028-5        4.0449-5        -3.247-75.6255-5
$<-----><------><------><------><------><------><------><------><------>
CONM2      51020    5111          3.94-2     0.0     0.0     0.0        +
+       3.4055-5        8.0898-5        -6.494-71.1251-4
$<-----><------><------><------><------><------><------><------><------>
CONM2      51030    5112          3.94-2     0.0     0.0     0.0        +
+       3.4055-5        8.0898-5        -6.494-71.1251-4
$<-----><------><------><------><------><------><------><------><------>
CONM2      51040    5113          3.94-2     0.0     0.0     0.0        +
+       3.4055-5        8.0898-5        -6.494-71.1251-4
$<-----><------><------><------><------><------><------><------><------>
CONM2      51050    5114          3.94-2     0.0     0.0     0.0        +
+       3.4055-5        8.0898-5        -6.494-71.1251-4
$<-----><------><------><------><------><------><------><------><------>
CONM2      51060    5115          3.94-2     0.0     0.0     0.0        +
+       3.4055-5        8.0898-5        -6.494-71.1251-4
$<-----><------><------><------><------><------><------><------><------>
CONM2      51070    5116          3.94-2     0.0     0.0     0.0        +
+       3.4055-5        8.0898-5        -6.494-71.1251-4
$<-----><------><------><------><------><------><------><------><------>
CONM2      51080    5117          3.94-2     0.0     0.0     0.0        +
+       3.4055-5        8.0898-5        -6.494-71.1251-4
$<-----><------><------><------><------><------><------><------><------>
CONM2      51090    5118          3.94-2     0.0     0.0     0.0        +
+       3.4055-5        8.0898-5        -6.494-71.1251-4
$<-----><------><------><------><------><------><------><------><------>
CONM2      51100    5119          3.94-2     0.0     0.0     0.0        +
+       3.4055-5        8.0898-5        -6.494-71.1251-4
$<-----><------><------><------><------><------><------><------><------>
CONM2      51110    5120          1.97-2     0.0     0.0     0.0        +
+       1.7028-5        4.0449-5        -3.247-75.6255-5
$----------------------------------------------------------------------
$ Member POD1UP: first pod on the right 
$----------------------------------------------------------------------
GRID        6001        -0.09041    0.99      0.
GRID        6002        -0.04   1.002138-.013853
$<-----><------><------><------><------><------><------><------><------>
RBAR1       6000    5002    6001
RBAR1       6001    5002    6002
$<-----><------><------><------><------><------><------><------><------>
CONM2      60000    6001           0.548    0.0     0.0     0.0         +
+       8.9027-4         1.535-3                8.9027-4
$<-----><------><------><------><------><------><------><------><------>
CONM2      60010    6002           0.929    0.0     0.0     0.0         +
+        3.209-3-1.212-3 1.134-2 4.595-5 1.055-5 8.484-3
$----------------------------------------------------------------------
$ Member BR1: first boom on the right 
$----------------------------------------------------------------------
GRID        7000           0.325      1.      0.                                
$<-----><------><------><------><------><------><------><------><------>
RBAR1       7000    5002    7000 
RBAR1       7200    7000    8000 
$<-----><------><------><------><------><------><------><------><------>
CONM2      70000    7000        0.027885    0.0     0.0     0.0         +
+         0.0           9.8178-4                9.8178-4
$----------------------------------------------------------------------
$ Member TR1IN: first tail on the right inner part
$----------------------------------------------------------------------
GRID        8000          0.6356      1.      0.
GRID        8001          0.6356    0.94      0.
GRID        8002          0.6356    0.88      0.
GRID        8003          0.6356    0.82      0.
GRID        8004          0.6356    0.76      0.
$<-----><------><------><------><------><------><------><------><------>
RBAR1       8002    8000    8001
RBAR1       8003    8001    8002
RBAR1       8004    8002    8003
RBAR1       8005    8003    8004
$<-----><------><------><------><------><------><------><------><------>
CONM2      80000    8002        0.062736    0.0     0.0     0.0         +
+         6.99-7         3.835-5                 3.765-5
$----------------------------------------------------------------------
$ Member TR1OU: first tail on the right outer part
$----------------------------------------------------------------------
GRID        9001         0.6356    1.06      0.
GRID        9002         0.6356    1.12      0.
GRID        9003         0.6356    1.18      0.
GRID        9004         0.6356    1.24      0.
$<-----><------><------><------><------><------><------><------><------>
RBAR1       9002    8000    9001 
RBAR1       9003    9001    9002 
RBAR1       9004    9002    9003 
RBAR1       9005    9003    9004 
$<-----><------><------><------><------><------><------><------><------>
CONM2      90000    9002        0.062736    0.0     0.0     0.0         +
+           7.-7         3.835-5                 3.765-5
$----------------------------------------------------------------------
$ Member WR2: main wing right side part 2
$----------------------------------------------------------------------
GRID       10002              0.      2.      0.                                 
GRID       10011              0.     1.1      0.
GRID       10012              0.     1.2      0.
GRID       10013              0.     1.3      0.
GRID       10014              0.     1.4      0.
GRID       10015              0.     1.5      0.
GRID       10016              0.     1.6      0.
GRID       10017              0.     1.7      0.
GRID       10018              0.     1.8      0.
GRID       10019              0.     1.9      0.
$<-----><------><------><------><------><------><------><------><------>
$ GRIDS for CONMs
$<-----><------><------><------><------><------><------><------><------>
GRID       10111         -2.94-2     1.1      0.
GRID       10112         -2.94-2     1.2      0.
GRID       10113         -2.94-2     1.3      0.
GRID       10114         -2.94-2     1.4      0.
GRID       10115         -2.94-2     1.5      0.
GRID       10116         -2.94-2     1.6      0.
GRID       10117         -2.94-2     1.7      0.
GRID       10118         -2.94-2     1.8      0.
GRID       10119         -2.94-2     1.9      0.
GRID       10120         -2.94-2     2.0      0.
$<-----><------><------><------><------><------><------><------><------>
CBEAM      10101    5000    5002   10011     -1.      0.      0.
CBEAM      10102    5000   10011   10012     -1.      0.      0.
CBEAM      10103    5000   10012   10013     -1.      0.      0.
CBEAM      10104    5000   10013   10014     -1.      0.      0.
CBEAM      10105    5000   10014   10015     -1.      0.      0.
CBEAM      10106    5000   10015   10016     -1.      0.      0.
CBEAM      10107    5000   10016   10017     -1.      0.      0.
CBEAM      10108    5000   10017   10018     -1.      0.      0.
CBEAM      10109    5000   10018   10019     -1.      0.      0.
CBEAM      10110    5000   10019   10002     -1.      0.      0.
$<-----><------><------><------><------><------><------><------><------>
$ beams for attaching the CONMs
$<-----><------><------><------><------><------><------><------><------>
RBAR1      12102   10011   10111
RBAR1      12103   10012   10112
RBAR1      12104   10013   10113
RBAR1      12105   10014   10114
RBAR1      12106   10015   10115
RBAR1      12107   10016   10116
RBAR1      12108   10017   10117
RBAR1      12109   10018   10118
RBAR1      12110   10019   10119
RBAR1      12111   10002   10120
$<-----><------><------><------><------><------><------><------><------>
$ masses for adjusting distributed inertia properties
$<-----><------><------><------><------><------><------><------><------>
CONM2     101010    5120          1.97-2     0.0     0.0     0.0        +
+       1.7028-5        4.0449-5        -3.247-75.6255-5
$<-----><------><------><------><------><------><------><------><------>
CONM2     101020   10111          3.94-2     0.0     0.0     0.0        +
+       3.4055-5        8.0898-5        -6.494-71.1251-4
$<-----><------><------><------><------><------><------><------><------>
CONM2     101030   10112          3.94-2     0.0     0.0     0.0        +
+       3.4055-5        8.0898-5        -6.494-71.1251-4
$<-----><------><------><------><------><------><------><------><------>
CONM2     101040   10113          3.94-2     0.0     0.0     0.0        +
+       3.4055-5        8.0898-5        -6.494-71.1251-4
$<-----><------><------><------><------><------><------><------><------>
CONM2     101050   10114          3.94-2     0.0     0.0     0.0        +
+       3.4055-5        8.0898-5        -6.494-71.1251-4
$<-----><------><------><------><------><------><------><------><------>
CONM2     101060   10115          3.94-2     0.0     0.0     0.0        +
+       3.4055-5        8.0898-5        -6.494-71.1251-4
$<-----><------><------><------><------><------><------><------><------>
CONM2     101070   10116          3.94-2     0.0     0.0     0.0        +
+       3.4055-5        8.0898-5        -6.494-71.1251-4
$<-----><------><------><------><------><------><------><------><------>
CONM2     101080   10117          3.94-2     0.0     0.0     0.0        +
+       3.4055-5        8.0898-5        -6.494-71.1251-4
$<-----><------><------><------><------><------><------><------><------>
CONM2     101090   10118          3.94-2     0.0     0.0     0.0        +
+       3.4055-5        8.0898-5        -6.494-71.1251-4
$<-----><------><------><------><------><------><------><------><------>
CONM2     101100   10119          3.94-2     0.0     0.0     0.0        +
+       3.4055-5        8.0898-5        -6.494-71.1251-4
$<-----><------><------><------><------><------><------><------><------>
CONM2     101110   10120          1.97-2     0.0     0.0     0.0        +
+       1.7028-5        4.0449-5        -3.247-75.6255-5
$----------------------------------------------------------------------
$ Member POD3UP: second pod on the right 
$----------------------------------------------------------------------
GRID       11001        -0.0941    1.99      0.
GRID       11002        -0.04   2.002138-.013853
$<-----><------><------><------><------><------><------><------><------>
RBAR1      11000   10002   11001
RBAR1      11001   10002   11002
$<-----><------><------><------><------><------><------><------><------>
CONM2     110000   11001           0.571    0.0     0.0     0.0         +
+       8.9027-4         1.535-3                8.9027-4
$<-----><------><------><------><------><------><------><------><------>
CONM2     110010   11002           0.929    0.0     0.0     0.0         +
+        3.209-3-1.212-3 1.134-2 4.595-5 1.055-5 8.484-3
$----------------------------------------------------------------------
$ Member BR2: second boom on the right 
$----------------------------------------------------------------------
GRID       12000           0.325      2.      0.                                
$<-----><------><------><------><------><------><------><------><------>
RBAR1      12000   10002   12000      
RBAR1      12200   12000   13000      
$<-----><------><------><------><------><------><------><------><------>
CONM2     120000   12000        0.027885    0.0     0.0     0.0         +
+         0.0           9.8178-4                9.8178-4
$----------------------------------------------------------------------
$ Member TR2IN: second tail on the right inner part
$----------------------------------------------------------------------
GRID       13000          0.6356      2.      0.
GRID       13001          0.6356    1.94      0.
GRID       13002          0.6356    1.88      0.
GRID       13003          0.6356    1.82      0.
GRID       13004          0.6356    1.76      0.
$<-----><------><------><------><------><------><------><------><------>
RBAR1      13002   13000   13001
RBAR1      13003   13001   13002
RBAR1      13004   13002   13003
RBAR1      13005   13003   13004
$<-----><------><------><------><------><------><------><------><------>
CONM2     130000   13002        0.062736    0.0     0.0     0.0         +
+         6.99-7         3.835-5                 3.765-5
$----------------------------------------------------------------------
$ Member TR2OU: second tail on the right outer part
$----------------------------------------------------------------------
GRID       14001         0.6356    2.06      0.
GRID       14002         0.6356    2.12      0.
GRID       14003         0.6356    2.18      0.
GRID       14004         0.6356    2.24      0.
$<-----><------><------><------><------><------><------><------><------>
RBAR1      14002   13000   14001
RBAR1      14003   14001   14002
RBAR1      14004   14002   14003
RBAR1      14005   14003   14004
$<-----><------><------><------><------><------><------><------><------>
CONM2     140000   14002        0.062736    0.0     0.0     0.0         +
+           7.-7         3.835-5                 3.765-5
$----------------------------------------------------------------------
$ Member WR3: main wing right side part 3
$----------------------------------------------------------------------
GRID       15011              0. 2.098480.017365
GRID       15012              0. 2.196960.034730
GRID       15013              0. 2.295440.052095
GRID       15014              0. 2.393920.069460
GRID       15015              0. 2.492400.086825
GRID       15016              0. 2.590880.104190
GRID       15017              0. 2.689360.121555
GRID       15018              0. 2.787840.138920
GRID       15019              0. 2.886320.156285
GRID       15020              0.  2.98480.17365
$<-----><------><------><------><------><------><------><------><------>
$ GRIDS for CONMs
$<-----><------><------><------><------><------><------><------><------>
GRID       15111         -2.14-2 2.098480.017365
GRID       15112         -2.14-2 2.196960.034730
GRID       15113         -2.14-2 2.295440.052095
GRID       15114         -2.14-2 2.393920.069460
GRID       15115         -2.14-2 2.492400.086825
GRID       15116         -2.14-2 2.590880.104190
GRID       15117         -2.14-2 2.689360.121555
GRID       15118         -2.14-2 2.787840.138920
GRID       15119         -2.14-2 2.886320.156285
GRID       15120         -2.14-2  2.98480.17365
$<-----><------><------><------><------><------><------><------><------>
CBEAM      15101    5000   10002   15011     -1.      0.      0.
CBEAM      15102    5000   15011   15012     -1.      0.      0.
CBEAM      15103    5000   15012   15013     -1.      0.      0.
CBEAM      15104    5000   15013   15014     -1.      0.      0.
CBEAM      15105    5000   15014   15015     -1.      0.      0.
CBEAM      15106    5000   15015   15016     -1.      0.      0.
CBEAM      15107    5000   15016   15017     -1.      0.      0.
CBEAM      15108    5000   15017   15018     -1.      0.      0.
CBEAM      15109    5000   15018   15019     -1.      0.      0.
CBEAM      15110    5000   15019   15020     -1.      0.      0.
$<-----><------><------><------><------><------><------><------><------>
$ beams for attaching the CONMs
$<-----><------><------><------><------><------><------><------><------>
RBAR1      15202   15011   15111    
RBAR1      15203   15012   15112    
RBAR1      15204   15013   15113    
RBAR1      15205   15014   15114    
RBAR1      15206   15015   15115    
RBAR1      15207   15016   15116    
RBAR1      15208   15017   15117    
RBAR1      15209   15018   15118    
RBAR1      15210   15019   15119    
RBAR1      15211   15020   15120    
$<-----><------><------><------><------><------><------><------><------>
$ masses for adjusting distributed inertia properties
$<-----><------><------><------><------><------><------><------><------>
CONM2     151010   10120          2.50-2     0.0     0.0     0.0        +
+       1.7028-5        4.0449-5        -3.247-75.6255-5
$<-----><------><------><------><------><------><------><------><------>
CONM2     151020   15111          5.00-2     0.0     0.0     0.0        +
+       3.4055-5        8.0898-5        -6.494-71.1251-4
$<-----><------><------><------><------><------><------><------><------>
CONM2     151030   15112          5.00-2     0.0     0.0     0.0        +
+       3.4055-5        8.0898-5        -6.494-71.1251-4
$<-----><------><------><------><------><------><------><------><------>
CONM2     151040   15113          5.00-2     0.0     0.0     0.0        +
+       3.4055-5        8.0898-5        -6.494-71.1251-4
$<-----><------><------><------><------><------><------><------><------>
CONM2     151050   15114          5.00-2     0.0     0.0     0.0        +
+       3.4055-5        8.0898-5        -6.494-71.1251-4
$<-----><------><------><------><------><------><------><------><------>
CONM2     151060   15115          5.00-2     0.0     0.0     0.0        +
+       3.4055-5        8.0898-5        -6.494-71.1251-4
$<-----><------><------><------><------><------><------><------><------>
CONM2     151070   15116          5.00-2     0.0     0.0     0.0        +
+       3.4055-5        8.0898-5        -6.494-71.1251-4
$<-----><------><------><------><------><------><------><------><------>
CONM2     151080   15117          5.00-2     0.0     0.0     0.0        +
+       3.4055-5        8.0898-5        -6.494-71.1251-4
$<-----><------><------><------><------><------><------><------><------>
CONM2     151090   15118          5.00-2     0.0     0.0     0.0        +
+       3.4055-5        8.0898-5        -6.494-71.1251-4
$<-----><------><------><------><------><------><------><------><------>
CONM2     151100   15119          5.00-2     0.0     0.0     0.0        +
+       3.4055-5        8.0898-5        -6.494-71.1251-4
$<-----><------><------><------><------><------><------><------><------>
CONM2     151110   15120          2.50-2     0.0     0.0     0.0        +
+       1.7028-5        4.0449-5        -3.247-75.6255-5
$----------------------------------------------------------------------
$ Member WL1: main wing left side part 1
$----------------------------------------------------------------------
GRID       16002              0.     -1.      0.                                 
GRID       16011              0.    -0.1      0.
GRID       16012              0.    -0.2      0.
GRID       16013              0.    -0.3      0.
GRID       16014              0.    -0.4      0.
GRID       16015              0.    -0.5      0.
GRID       16016              0.    -0.6      0.
GRID       16017              0.    -0.7      0.
GRID       16018              0.    -0.8      0.
GRID       16019              0.    -0.9      0.
$<-----><------><------><------><------><------><------><------><------>
$ GRIDS for the CONMs
$<-----><------><------><------><------><------><------><------><------>
GRID       16111         -2.94-2    -0.1      0.
GRID       16112         -2.94-2    -0.2      0.
GRID       16113         -2.94-2    -0.3      0.
GRID       16114         -2.94-2    -0.4      0.
GRID       16115         -2.94-2    -0.5      0.
GRID       16116         -2.94-2    -0.6      0.
GRID       16117         -2.94-2    -0.7      0.
GRID       16118         -2.94-2    -0.8      0.
GRID       16119         -2.94-2    -0.9      0.
GRID       16120         -2.94-2    -1.0      0.
$<-----><------><------><------><------><------><------><------><------>
CBEAM      16101    5000   16011    5001     -1.      0.      0.
CBEAM      16102    5000   16012   16011     -1.      0.      0.
CBEAM      16103    5000   16013   16012     -1.      0.      0.
CBEAM      16104    5000   16014   16013     -1.      0.      0.
CBEAM      16105    5000   16015   16014     -1.      0.      0.
CBEAM      16106    5000   16016   16015     -1.      0.      0.
CBEAM      16107    5000   16017   16016     -1.      0.      0.
CBEAM      16108    5000   16018   16017     -1.      0.      0.
CBEAM      16109    5000   16019   16018     -1.      0.      0.
CBEAM      16110    5000   16002   16019     -1.      0.      0.
$<-----><------><------><------><------><------><------><------><------>
$ beams for attaching the CONMs
$<-----><------><------><------><------><------><------><------><------>
RBAR1      16201   16011   16111 
RBAR1      16202   16012   16112 
RBAR1      16203   16013   16113 
RBAR1      16204   16014   16114 
RBAR1      16205   16015   16115 
RBAR1      16206   16016   16116 
RBAR1      16207   16017   16117 
RBAR1      16208   16018   16118 
RBAR1      16209   16019   16119 
RBAR1      16210   16002   16120 
$<-----><------><------><------><------><------><------><------><------>
$ masses for adjusting distributed inertia properties
$<-----><------><------><------><------><------><------><------><------>
CONM2     161010    5110          1.97-2     0.0     0.0     0.0        +
+       1.7028-5        4.0449-5         3.247-75.6255-5
$<-----><------><------><------><------><------><------><------><------>
CONM2     161020   16111          3.94-2     0.0     0.0     0.0        +
+       3.4055-5        8.0898-5         6.494-71.1251-4
$<-----><------><------><------><------><------><------><------><------>
CONM2     161030   16112          3.94-2     0.0     0.0     0.0        +
+       3.4055-5        8.0898-5         6.494-71.1251-4
$<-----><------><------><------><------><------><------><------><------>
CONM2     161040   16113          3.94-2     0.0     0.0     0.0        +
+       3.4055-5        8.0898-5         6.494-71.1251-4
$<-----><------><------><------><------><------><------><------><------>
CONM2     161050   16114          3.94-2     0.0     0.0     0.0        +
+       3.4055-5        8.0898-5         6.494-71.1251-4
$<-----><------><------><------><------><------><------><------><------>
CONM2     161060   16115          3.94-2     0.0     0.0     0.0        +
+       3.4055-5        8.0898-5         6.494-71.1251-4
$<-----><------><------><------><------><------><------><------><------>
CONM2     161070   16116          3.94-2     0.0     0.0     0.0        +
+       3.4055-5        8.0898-5         6.494-71.1251-4
$<-----><------><------><------><------><------><------><------><------>
CONM2     161080   16117          3.94-2     0.0     0.0     0.0        +
+       3.4055-5        8.0898-5         6.494-71.1251-4
$<-----><------><------><------><------><------><------><------><------>
CONM2     161090   16118          3.94-2     0.0     0.0     0.0        +
+       3.4055-5        8.0898-5         6.494-71.1251-4
$<-----><------><------><------><------><------><------><------><------>
CONM2     161100   16119          3.94-2     0.0     0.0     0.0        +
+       3.4055-5        8.0898-5         6.494-71.1251-4
$<-----><------><------><------><------><------><------><------><------>
CONM2     161110   16120          1.97-2     0.0     0.0     0.0        +
+       1.7028-5        4.0449-5         3.247-75.6255-5
$----------------------------------------------------------------------
$ Member POD2UP: first pod on the left 
$----------------------------------------------------------------------
GRID       17001        -0.09041   -1.01   0.0
GRID       17002           -0.04-0.99786-.013853
$<-----><------><------><------><------><------><------><------><------>
RBAR1      17000   16002   17001    
RBAR1      17001   16002   17002    
$<-----><------><------><------><------><------><------><------><------>
CONM2     170000   17001           0.548    0.0     0.0     0.0         +
+       8.9027-4         1.535-3                8.9027-4
$<-----><------><------><------><------><------><------><------><------>
CONM2     170010   17002           0.929    0.0     0.0     0.0         +
+        3.209-3-1.212-3 1.134-24.595-5 1.055-5 8.9027-4
$----------------------------------------------------------------------
$ Member BL1: first boom on the left 
$----------------------------------------------------------------------
GRID       18000           0.325     -1.      0.                                
$<-----><------><------><------><------><------><------><------><------>
RBAR1      18000   16002   18000
RBAR1      18200   18000   19000
$<-----><------><------><------><------><------><------><------><------>
CONM2     180000   18000        0.027885    0.0     0.0     0.0         +
+         0.0           9.8178-4                9.8178-4
$----------------------------------------------------------------------
$ Member TL1IN: first tail on the left inner part
$----------------------------------------------------------------------
GRID       19000        0.6356      -1.      0.
GRID       19001        0.6356     -0.94      0.
GRID       19002        0.6356     -0.88      0.
GRID       19003        0.6356     -0.82      0.
GRID       19004        0.6356     -0.76      0.
$<-----><------><------><------><------><------><------><------><------>
RBAR1      19002   19000   19001
RBAR1      19003   19001   19002
RBAR1      19004   19002   19003
RBAR1      19005   19003   19004
$<-----><------><------><------><------><------><------><------><------>
CONM2     190000   19002        0.062736    0.0     0.0     0.0         +
+         6.99-7         3.835-5                 3.765-5
$----------------------------------------------------------------------
$ Member TL1OU: first tail on the left outer part 
$----------------------------------------------------------------------
GRID       20001         0.6356    -1.06      0.
GRID       20002         0.6356    -1.12      0.
GRID       20003         0.6356    -1.18      0.
GRID       20004         0.6356    -1.24      0.
$<-----><------><------><------><------><------><------><------><------>
RBAR1      20002   19000   20001
RBAR1      20003   20001   20002
RBAR1      20004   20002   20003
RBAR1      20005   20003   20004
$<-----><------><------><------><------><------><------><------><------>
CONM2     200000   20002        0.062736    0.0     0.0     0.0         +
+         6.99-7         3.835-5                 3.765-5
$----------------------------------------------------------------------
$ Member WL2: main wing left side part 2
$----------------------------------------------------------------------
GRID       21002              0.     -2.      0.                                 
GRID       21011              0.    -1.1      0.
GRID       21012              0.    -1.2      0.
GRID       21013              0.    -1.3      0.
GRID       21014              0.    -1.4      0.
GRID       21015              0.    -1.5      0.
GRID       21016              0.    -1.6      0.
GRID       21017              0.    -1.7      0.
GRID       21018              0.    -1.8      0.
GRID       21019              0.    -1.9      0.
$<-----><------><------><------><------><------><------><------><------>
$ GRIDS for the CONMs
$<-----><------><------><------><------><------><------><------><------>
GRID       21111         -2.94-2    -1.1      0.
GRID       21112         -2.94-2    -1.2      0.
GRID       21113         -2.94-2    -1.3      0.
GRID       21114         -2.94-2    -1.4      0.
GRID       21115         -2.94-2    -1.5      0.
GRID       21116         -2.94-2    -1.6      0.
GRID       21117         -2.94-2    -1.7      0.
GRID       21118         -2.94-2    -1.8      0.
GRID       21119         -2.94-2    -1.9      0.
GRID       21120         -2.94-2    -2.0      0.
$<-----><------><------><------><------><------><------><------><------>
CBEAM      21101    5000   21011   16002     -1.      0.      0.
CBEAM      21102    5000   21012   21011     -1.      0.      0.
CBEAM      21103    5000   21013   21012     -1.      0.      0.
CBEAM      21104    5000   21014   21013     -1.      0.      0.
CBEAM      21105    5000   21015   21014     -1.      0.      0.
CBEAM      21106    5000   21016   21015     -1.      0.      0.
CBEAM      21107    5000   21017   21016     -1.      0.      0.
CBEAM      21108    5000   21018   21017     -1.      0.      0.
CBEAM      21109    5000   21019   21018     -1.      0.      0.
CBEAM      21110    5000   21002   21019     -1.      0.      0.
$<-----><------><------><------><------><------><------><------><------>
$ beams for attaching the CONMs
$<-----><------><------><------><------><------><------><------><------>
RBAR1      21201   21011   21111
RBAR1      21202   21012   21112
RBAR1      21203   21013   21113
RBAR1      21204   21014   21114
RBAR1      21205   21015   21115
RBAR1      21206   21016   21116
RBAR1      21207   21017   21117
RBAR1      21208   21018   21118
RBAR1      21209   21019   21119
RBAR1      21210   21002   21120
$<-----><------><------><------><------><------><------><------><------>
$ masses for adjusting distributed inertia properties
$<-----><------><------><------><------><------><------><------><------>
CONM2     211010   16120          1.97-2     0.0     0.0     0.0        +
+       1.7028-5        4.0449-5         3.247-75.6255-5
$<-----><------><------><------><------><------><------><------><------>
CONM2     211020   21111          3.94-2     0.0     0.0     0.0        +
+       3.4055-5        8.0898-5         6.494-71.1251-4
$<-----><------><------><------><------><------><------><------><------>
CONM2     211030   21112          3.94-2     0.0     0.0     0.0        +
+       3.4055-5        8.0898-5         6.494-71.1251-4
$<-----><------><------><------><------><------><------><------><------>
CONM2     211040   21113          3.94-2     0.0     0.0     0.0        +
+       3.4055-5        8.0898-5         6.494-71.1251-4
$<-----><------><------><------><------><------><------><------><------>
CONM2     211050   21114          3.94-2     0.0     0.0     0.0        +
+       3.4055-5        8.0898-5         6.494-71.1251-4
$<-----><------><------><------><------><------><------><------><------>
CONM2     211060   21115          3.94-2     0.0     0.0     0.0        +
+       3.4055-5        8.0898-5         6.494-71.1251-4
$<-----><------><------><------><------><------><------><------><------>
CONM2     211070   21116          3.94-2     0.0     0.0     0.0        +
+       3.4055-5        8.0898-5         6.494-71.1251-4
$<-----><------><------><------><------><------><------><------><------>
CONM2     211080   21117          3.94-2     0.0     0.0     0.0        +
+       3.4055-5        8.0898-5         6.494-71.1251-4
$<-----><------><------><------><------><------><------><------><------>
CONM2     211090   21118          3.94-2     0.0     0.0     0.0        +
+       3.4055-5        8.0898-5         6.494-71.1251-4
$<-----><------><------><------><------><------><------><------><------>
CONM2     211100   21119          3.94-2     0.0     0.0     0.0        +
+       3.4055-5        8.0898-5         6.494-71.1251-4
$<-----><------><------><------><------><------><------><------><------>
CONM2     211110   21120          1.97-2     0.0     0.0     0.0        +
+       1.7028-5        4.0449-5         3.247-75.6255-5
$----------------------------------------------------------------------
$ Member POD4UP: second pod on the left 
$----------------------------------------------------------------------
GRID       22001         -0.0941   -2.01   0.0
GRID       22002           -0.04-1.9979 -.013853
$<-----><------><------><------><------><------><------><------><------>
RBAR1      22000   21002   22001
RBAR1      22001   21002   22002
$<-----><------><------><------><------><------><------><------><------>
CONM2     220000   22001           0.571    0.0     0.0     0.0         +
+       8.9027-4         1.535-3                8.9027-4
$<-----><------><------><------><------><------><------><------><------>
CONM2     220010   22002           0.929    0.0     0.0     0.0         +
+        3.209-3-1.212-3 1.134-24.595-5 1.055-5 8.9027-4
$----------------------------------------------------------------------
$ Member BL2: second boom on the left 
$----------------------------------------------------------------------
GRID       23000           0.325     -2.      0.                                
$<-----><------><------><------><------><------><------><------><------>
RBAR1      23000   21002   23000
RBAR1      23200   23000   24000
$<-----><------><------><------><------><------><------><------><------>
CONM2     230000   23000        0.027885    0.0     0.0     0.0         +
+         0.0           9.8178-4                9.8178-4
$----------------------------------------------------------------------
$ Member TL2IN: second tail on the left part 1
$----------------------------------------------------------------------
GRID       24000        0.6356     -2.        0.
GRID       24001        0.6356     -1.94      0.
GRID       24002        0.6356     -1.88      0.
GRID       24003        0.6356     -1.82      0.
GRID       24004        0.6356     -1.76      0.
$<-----><------><------><------><------><------><------><------><------>
RBAR1      24002   24000   24001
RBAR1      24003   24001   24002
RBAR1      24004   24002   24003
RBAR1      24005   24003   24004
$<-----><------><------><------><------><------><------><------><------>
CONM2     240000   24002        0.062736    0.0     0.0     0.0         +
+         6.99-7         3.835-5                 3.765-5
$----------------------------------------------------------------------
$ Member TL2OU: second tail on the left part 2
$----------------------------------------------------------------------
GRID       25001         0.6356    -2.06      0.
GRID       25002         0.6356    -2.12      0.
GRID       25003         0.6356    -2.18      0.
GRID       25004         0.6356    -2.24      0.
$<-----><------><------><------><------><------><------><------><------>
RBAR1      25002   24000   25001
RBAR1      25003   25001   25002
RBAR1      25004   25002   25003
RBAR1      25005   25003   25004
$<-----><------><------><------><------><------><------><------><------>
CONM2     250000   25002        0.062736    0.0     0.0     0.0         +
+         6.99-7         3.835-5                 3.765-5
$----------------------------------------------------------------------
$ Member WL3: main wing left side part 3
$----------------------------------------------------------------------
GRID       26011              0.-2.098480.017365
GRID       26012              0.-2.196960.034730
GRID       26013              0.-2.295440.052095
GRID       26014              0.-2.393920.069460
GRID       26015              0.-2.492400.086825
GRID       26016              0.-2.590880.104190
GRID       26017              0.-2.689360.121555
GRID       26018              0.-2.787840.138920
GRID       26019              0.-2.886320.156285
GRID       26020              0. -2.98480.17365
$<-----><------><------><------><------><------><------><------><------>
$ GRIDs for the CONMs
$<-----><------><------><------><------><------><------><------><------>
GRID       26111         -2.14-2-2.098480.017365
GRID       26112         -2.14-2-2.196960.034730
GRID       26113         -2.14-2-2.295440.052095
GRID       26114         -2.14-2-2.393920.069460
GRID       26115         -2.14-2-2.492400.086825
GRID       26116         -2.14-2-2.590880.104190
GRID       26117         -2.14-2-2.689360.121555
GRID       26118         -2.14-2-2.787840.138920
GRID       26119         -2.14-2-2.886320.156285
GRID       26120         -2.14-2-2.9848 0.17365
$<-----><------><------><------><------><------><------><------><------>
CBEAM      26101    5000   26011   21002     -1.      0.      0.
CBEAM      26102    5000   26012   26011     -1.      0.      0.
CBEAM      26103    5000   26013   26012     -1.      0.      0.
CBEAM      26104    5000   26014   26013     -1.      0.      0.
CBEAM      26105    5000   26015   26014     -1.      0.      0.
CBEAM      26106    5000   26016   26015     -1.      0.      0.
CBEAM      26107    5000   26017   26016     -1.      0.      0.
CBEAM      26108    5000   26018   26017     -1.      0.      0.
CBEAM      26109    5000   26019   26018     -1.      0.      0.
CBEAM      26110    5000   26020   26019     -1.      0.      0.
$<-----><------><------><------><------><------><------><------><------>
$ beams for attaching the CONMs
$<-----><------><------><------><------><------><------><------><------>
RBAR1      26201   26011   26111
RBAR1      26202   26012   26112
RBAR1      26203   26013   26113
RBAR1      26204   26014   26114
RBAR1      26205   26015   26115
RBAR1      26206   26016   26116
RBAR1      26207   26017   26117
RBAR1      26208   26018   26118
RBAR1      26209   26019   26119
RBAR1      26210   26020   26120
$<-----><------><------><------><------><------><------><------><------>
$ masses for adjusting distributed inertia properties
$<-----><------><------><------><------><------><------><------><------>
CONM2     261010   21120          2.50-2     0.0     0.0     0.0        +
+       1.7028-5        4.0449-5         3.247-75.6255-5
$<-----><------><------><------><------><------><------><------><------>
CONM2     261020   26111          5.00-2     0.0     0.0     0.0        +
+       3.4055-5        8.0898-5         6.494-71.1251-4
$<-----><------><------><------><------><------><------><------><------>
CONM2     261030   26112          5.00-2     0.0     0.0     0.0        +
+       3.4055-5        8.0898-5         6.494-71.1251-4
$<-----><------><------><------><------><------><------><------><------>
CONM2     261040   26113          5.00-2     0.0     0.0     0.0        +
+       3.4055-5        8.0898-5         6.494-71.1251-4
$<-----><------><------><------><------><------><------><------><------>
CONM2     261050   26114          5.00-2     0.0     0.0     0.0        +
+       3.4055-5        8.0898-5         6.494-71.1251-4
$<-----><------><------><------><------><------><------><------><------>
CONM2     261060   26115          5.00-2     0.0     0.0     0.0        +
+       3.4055-5        8.0898-5         6.494-71.1251-4
$<-----><------><------><------><------><------><------><------><------>
CONM2     261070   26116          5.00-2     0.0     0.0     0.0        +
+       3.4055-5        8.0898-5         6.494-71.1251-4
$<-----><------><------><------><------><------><------><------><------>
CONM2     261080   26117          5.00-2     0.0     0.0     0.0        +
+       3.4055-5        8.0898-5         6.494-71.1251-4
$<-----><------><------><------><------><------><------><------><------>
CONM2     261090   26118          5.00-2     0.0     0.0     0.0        +
+       3.4055-5        8.0898-5         6.494-71.1251-4
$<-----><------><------><------><------><------><------><------><------>
CONM2     261100   26119          5.00-2     0.0     0.0     0.0        +
+       3.4055-5        8.0898-5         6.494-71.1251-4
$<-----><------><------><------><------><------><------><------><------>
CONM2     261110   26120          2.50-2     0.0     0.0     0.0        +
+       1.7028-5        4.0449-5         3.247-75.6255-5
$----------------------------------------------------------------------
$ Member CFIN: center fin
$----------------------------------------------------------------------
GRID       27000          1.106       0.  -0.065                                 
$<-----><------><------><------><------><------><------><------><------>
RBAR1      27000    5001   27000 
$<-----><------><------><------><------><------><------><------><------>
CONM2     270000   27000          0.0662     0.0     0.0     0.0        +
+       1.2138-5         4.264-4                4.1431-4
$----------------------------------------------------------------------
$ Member RFIN: right fin
$----------------------------------------------------------------------
GRID       28000            0.65      1.  -0.065                                
$<-----><------><------><------><------><------><------><------><------>
RBAR1      28000    5002   28000     
$<-----><------><------><------><------><------><------><------><------>
CONM2     280000   28000        0.041704     0.0     0.0     0.0        +
+        7.644-6        1.1388-4                1.0621-4
$----------------------------------------------------------------------
$ Member LFIN: left fin
$----------------------------------------------------------------------
GRID       29000            0.65     -1.  -0.065                            
$<-----><------><------><------><------><------><------><------><------>
RBAR1      29000   16002   29000    
$<-----><------><------><------><------><------><------><------><------>
CONM2     290000   29000        0.041704     0.0     0.0     0.0        +
+        7.644-6        1.1388-4                1.0621-4
$<-----><------><------><------><------><------><------><------><------>
