$-----------------------------------------------------------------------
$ PBEAM 1
$-----------------------------------------------------------------------
$<-----><------><------><------><------><------><------><------><------>
PBEAM    1       6      .008    1.1106-42.7765-5        1.1106-4
+
         YES    1.      .008    1.0445-42.6112-5        1.0445-4
+
        1.      1.
$-----------------------------------------------------------------------
CBEAM    1       1       1       2      -1.      0.      0.
$-----------------------------------------------------------------------
$ PBEAM 2
$-----------------------------------------------------------------------
$<-----><------><------><------><------><------><------><------><------>
PBEAM    2       6      .008    1.0445-42.6112-5        1.0445-4
+
         YES    1.      .008    9.8054-52.4514-5        9.8054-5
+
        1.      1.
$-----------------------------------------------------------------------
CBEAM    2       2       2       3      -1.      0.      0.
$-----------------------------------------------------------------------
$ PBEAM 3
$-----------------------------------------------------------------------
$<-----><------><------><------><------><------><------><------><------>
PBEAM    3       6      .008    9.8054-52.4514-5        9.8054-5
+
         YES    1.      .008    9.1884-52.2971-5        9.1884-5
+
        1.      1.
$-----------------------------------------------------------------------
CBEAM    3       3       3       4      -1.      0.      0.
$-----------------------------------------------------------------------
$ PBEAM 4
$-----------------------------------------------------------------------
$<-----><------><------><------><------><------><------><------><------>
PBEAM    4       6      .008    9.1884-52.2971-5        9.1884-5
+
         YES    1.      .008    8.5936-52.1484-5        8.5936-5
+
        1.      1.
$-----------------------------------------------------------------------
CBEAM    4       4       4       5      -1.      0.      0.
$-----------------------------------------------------------------------
$ PBEAM 5
$-----------------------------------------------------------------------
$<-----><------><------><------><------><------><------><------><------>
PBEAM    5       6      .008    8.5936-52.1484-5        8.5936-5
+
         YES    1.      .008    8.021-5 2.0053-5        8.021-5
+
        1.      1.
$-----------------------------------------------------------------------
CBEAM    5       5       5       6      -1.      0.      0.
$-----------------------------------------------------------------------
$ PBEAM 6
$-----------------------------------------------------------------------
$<-----><------><------><------><------><------><------><------><------>
PBEAM    6       6      .008    8.021-5 2.0053-5        8.021-5
+
         YES    1.      .008    7.4706-51.8677-5        7.4706-5
+
        1.      1.
$-----------------------------------------------------------------------
CBEAM    6       6       6       7      -1.      0.      0.
$-----------------------------------------------------------------------
$ PBEAM 7
$-----------------------------------------------------------------------
$<-----><------><------><------><------><------><------><------><------>
PBEAM    7       6      .008    7.4706-51.8677-5        7.4706-5
+
         YES    1.      .008    6.9424-51.7356-5        6.9424-5
+
        1.      1.
$-----------------------------------------------------------------------
CBEAM    7       7       7       8      -1.      0.      0.
$-----------------------------------------------------------------------
$ PBEAM 8
$-----------------------------------------------------------------------
$<-----><------><------><------><------><------><------><------><------>
PBEAM    8       6      .008    6.9424-51.7356-5        6.9424-5
+
         YES    1.      .008    6.4364-51.6091-5        6.4364-5
+
        1.      1.
$-----------------------------------------------------------------------
CBEAM    8       8       8       9      -1.      0.      0.
$-----------------------------------------------------------------------
$ PBEAM 9
$-----------------------------------------------------------------------
$<-----><------><------><------><------><------><------><------><------>
PBEAM    9       6      .008    6.4364-51.6091-5        6.4364-5
+
         YES    1.      .008    5.9527-51.4882-5        5.9527-5
+
        1.      1.
$-----------------------------------------------------------------------
CBEAM    9       9       9       10     -1.      0.      0.
$-----------------------------------------------------------------------
$ PBEAM 10
$-----------------------------------------------------------------------
$<-----><------><------><------><------><------><------><------><------>
PBEAM    10      6      .008    5.9527-51.4882-5        5.9527-5
+
         YES    1.      .008    5.4911-51.3728-5        5.4911-5
+
        1.      1.
$-----------------------------------------------------------------------
CBEAM    10      10      10      11     -1.      0.      0.
$-----------------------------------------------------------------------
$ PBEAM 11
$-----------------------------------------------------------------------
$<-----><------><------><------><------><------><------><------><------>
PBEAM    11      6      .008    5.4911-51.3728-5        5.4911-5
+
         YES    1.      .008    5.0517-51.2629-5        5.0517-5
+
        1.      1.
$-----------------------------------------------------------------------
CBEAM    11      11      11      12     -1.      0.      0.
$-----------------------------------------------------------------------
$ PBEAM 12
$-----------------------------------------------------------------------
$<-----><------><------><------><------><------><------><------><------>
PBEAM    12      6      .008    5.0517-51.2629-5        5.0517-5
+
         YES    1.      .008    4.6346-51.1586-5        4.6346-5
+
        1.      1.
$-----------------------------------------------------------------------
CBEAM    12      12      12      13     -1.      0.      0.
$-----------------------------------------------------------------------
$ PBEAM 13
$-----------------------------------------------------------------------
$<-----><------><------><------><------><------><------><------><------>
PBEAM    13      6      .008    4.6346-51.1586-5        4.6346-5
+
         YES    1.      .008    4.2396-51.0599-5        4.2396-5
+
        1.      1.
$-----------------------------------------------------------------------
CBEAM    13      13      13      14     -1.      0.      0.
$-----------------------------------------------------------------------
$ PBEAM 14
$-----------------------------------------------------------------------
$<-----><------><------><------><------><------><------><------><------>
PBEAM    14      6      .008    4.2396-51.0599-5        4.2396-5
+
         YES    1.      .008    3.8669-59.6673-6        3.8669-5
+
        1.      1.
$-----------------------------------------------------------------------
CBEAM    14      14      14      15     -1.      0.      0.
$-----------------------------------------------------------------------
$ PBEAM 15
$-----------------------------------------------------------------------
$<-----><------><------><------><------><------><------><------><------>
PBEAM    15      6      .008    3.8669-59.6673-6        3.8669-5
+
         YES    1.      .008    3.5164-58.791-6         3.5164-5
+
        1.      1.
$-----------------------------------------------------------------------
CBEAM    15      15      15      16     -1.      0.      0.
$-----------------------------------------------------------------------
$ PBEAM 16
$-----------------------------------------------------------------------
$<-----><------><------><------><------><------><------><------><------>
PBEAM    16      6      .008    3.5164-58.791-6         3.5164-5
+
         YES    1.      .008    3.1881-57.9702-6        3.1881-5
+
        1.      1.
$-----------------------------------------------------------------------
CBEAM    16      16      16      17     -1.      0.      0.
$-----------------------------------------------------------------------
$ PBEAM 17
$-----------------------------------------------------------------------
$<-----><------><------><------><------><------><------><------><------>
PBEAM    17      6      .008    3.1881-57.9702-6        3.1881-5
+
         YES    1.      .008    2.882-5 7.2049-6        2.882-5
+
        1.      1.
$-----------------------------------------------------------------------
CBEAM    17      17      17      18     -1.      0.      0.
$-----------------------------------------------------------------------
$ PBEAM 18
$-----------------------------------------------------------------------
$<-----><------><------><------><------><------><------><------><------>
PBEAM    18      6      .008    2.882-5 7.2049-6        2.882-5
+
         YES    1.      .008    2.5981-56.4951-6        2.5981-5
+
        1.      1.
$-----------------------------------------------------------------------
CBEAM    18      18      18      19     -1.      0.      0.
$-----------------------------------------------------------------------
$ PBEAM 19
$-----------------------------------------------------------------------
$<-----><------><------><------><------><------><------><------><------>
PBEAM    19      6      .008    2.5981-56.4951-6        2.5981-5
+
         YES    1.      .008    2.3364-55.8409-6        2.3364-5
+
        1.      1.
$-----------------------------------------------------------------------
CBEAM    19      19      19      20     -1.      0.      0.
$-----------------------------------------------------------------------
$ PBEAM 20
$-----------------------------------------------------------------------
$<-----><------><------><------><------><------><------><------><------>
PBEAM    20      6      .008    2.3364-55.8409-6        2.3364-5
+
         YES    1.      .008    2.0969-55.2422-6        2.0969-5
+
        1.      1.
$-----------------------------------------------------------------------
CBEAM    20      20      20      21     -1.      0.      0.
$-----------------------------------------------------------------------
$ PBEAM 21
$-----------------------------------------------------------------------
$<-----><------><------><------><------><------><------><------><------>
PBEAM    21      6      .008    2.0969-55.2422-6        2.0969-5
+
         YES    1.      .008    1.8796-54.699-6         1.8796-5
+
        1.      1.
$-----------------------------------------------------------------------
CBEAM    21      21      21      22     -1.      0.      0.
$-----------------------------------------------------------------------
$ PBEAM 22
$-----------------------------------------------------------------------
$<-----><------><------><------><------><------><------><------><------>
PBEAM    22      6      .008    1.8796-54.699-6         1.8796-5
+
         YES    1.      .008    1.6845-54.2113-6        1.6845-5
+
        1.      1.
$-----------------------------------------------------------------------
CBEAM    22      22      22      23     -1.      0.      0.
$-----------------------------------------------------------------------
$ PBEAM 23
$-----------------------------------------------------------------------
$<-----><------><------><------><------><------><------><------><------>
PBEAM    23      6      .008    1.6845-54.2113-6        1.6845-5
+
         YES    1.      .008    1.5117-53.7792-6        1.5117-5
+
        1.      1.
$-----------------------------------------------------------------------
CBEAM    23      23      23      24     -1.      0.      0.
$-----------------------------------------------------------------------
$ PBEAM 24
$-----------------------------------------------------------------------
$<-----><------><------><------><------><------><------><------><------>
PBEAM    24      6      .008    1.5117-53.7792-6        1.5117-5
+
         YES    1.      .008    1.361-5 3.4026-6        1.361-5
+
        1.      1.
$-----------------------------------------------------------------------
CBEAM    24      24      24      25     -1.      0.      0.
$-----------------------------------------------------------------------
$ PBEAM 25
$-----------------------------------------------------------------------
$<-----><------><------><------><------><------><------><------><------>
PBEAM    25      6      .008    1.361-5 3.4026-6        1.361-5
+
         YES    1.      .008    1.2326-53.0814-6        1.2326-5
+
        1.      1.
$-----------------------------------------------------------------------
CBEAM    25      25      25      26     -1.      0.      0.
$-----------------------------------------------------------------------
$ PBEAM 26
$-----------------------------------------------------------------------
$<-----><------><------><------><------><------><------><------><------>
PBEAM    26      6      .008    1.2326-53.0814-6        1.2326-5
+
         YES    1.      .008    1.1263-52.8159-6        1.1263-5
+
        1.      1.
$-----------------------------------------------------------------------
CBEAM    26      26      26      27     -1.      0.      0.
$-----------------------------------------------------------------------
$ PBEAM 27
$-----------------------------------------------------------------------
$<-----><------><------><------><------><------><------><------><------>
PBEAM    27      6      .008    1.1263-52.8159-6        1.1263-5
+
         YES    1.      .008    1.0423-52.6058-6        1.0423-5
+
        1.      1.
$-----------------------------------------------------------------------
CBEAM    27      27      27      28     -1.      0.      0.
$-----------------------------------------------------------------------
$ PBEAM 28
$-----------------------------------------------------------------------
$<-----><------><------><------><------><------><------><------><------>
PBEAM    28      6      .008    1.0423-52.6058-6        1.0423-5
+
         YES    1.      .008    9.8049-62.4512-6        9.8049-6
+
        1.      1.
$-----------------------------------------------------------------------
CBEAM    28      28      28      29     -1.      0.      0.
$-----------------------------------------------------------------------
$ PBEAM 29
$-----------------------------------------------------------------------
$<-----><------><------><------><------><------><------><------><------>
PBEAM    29      6      .008    9.8049-62.4512-6        9.8049-6
+
         YES    1.      .008    9.4088-62.3522-6        9.4088-6
+
        1.      1.
$-----------------------------------------------------------------------
CBEAM    29      29      29      30     -1.      0.      0.
$-----------------------------------------------------------------------
$ PBEAM 30
$-----------------------------------------------------------------------
$<-----><------><------><------><------><------><------><------><------>
PBEAM    30      6      .008    9.4088-62.3522-6        9.4088-6
+
         YES    1.      .008    9.2348-62.3087-6        9.2348-6
+
        1.      1.
$-----------------------------------------------------------------------
CBEAM    30      30      30      31     -1.      0.      0.
$-----------------------------------------------------------------------
$ PBEAM 31
$-----------------------------------------------------------------------
$<-----><------><------><------><------><------><------><------><------>
PBEAM    31      6      .008    9.2348-62.3087-6        9.2348-6
+
         YES    1.      .008    9.2828-62.3207-6        9.2828-6
+
        1.      1.
$-----------------------------------------------------------------------
CBEAM    31      31      31      32     -1.      0.      0.
$-----------------------------------------------------------------------
$ PBEAM 32
$-----------------------------------------------------------------------
$<-----><------><------><------><------><------><------><------><------>
PBEAM    32      6      .008    9.2828-62.3207-6        9.2828-6
+
         YES    1.      .008    9.553-6 2.3882-6        9.553-6
+
        1.      1.
$-----------------------------------------------------------------------
CBEAM    32      32      32      33     -1.      0.      0.
$-----------------------------------------------------------------------
$ CONM2
$-----------------------------------------------------------------------
$<-----><------><------><------><------><------><------><------><------>
CONM2    101     2       0      5.       0.      0.      0.
         0.      0.     .2       0.      0.      0.
CONM2    102     3       0      4.9697   0.      0.      0.
         0.      0.     .19879   0.      0.      0.
CONM2    103     4       0      4.9394   0.      0.      0.
         0.      0.     .19758   0.      0.      0.
CONM2    104     5       0      4.9091   0.      0.      0.
         0.      0.     .19636   0.      0.      0.
CONM2    105     6       0      4.8788   0.      0.      0.
         0.      0.     .19515   0.      0.      0.
CONM2    106     7       0      4.8485   0.      0.      0.
         0.      0.     .19394   0.      0.      0.
CONM2    107     8       0      4.8182   0.      0.      0.
         0.      0.     .19273   0.      0.      0.
CONM2    108     9       0      4.7879   0.      0.      0.
         0.      0.     .19152   0.      0.      0.
CONM2    109     10      0      4.7576   0.      0.      0.
         0.      0.     .1903    0.      0.      0.
CONM2    110     11      0      4.7273   0.      0.      0.
         0.      0.     .18909   0.      0.      0.
CONM2    111     12      0      4.697    0.      0.      0.
         0.      0.     .18788   0.      0.      0.
CONM2    112     13      0      4.6667   0.      0.      0.
         0.      0.     .18667   0.      0.      0.
CONM2    113     14      0      4.6364   0.      0.      0.
         0.      0.     .18545   0.      0.      0.
CONM2    114     15      0      4.6061   0.      0.      0.
         0.      0.     .18424   0.      0.      0.
CONM2    115     16      0      4.5758   0.      0.      0.
         0.      0.     .18303   0.      0.      0.
CONM2    116     17      0      4.5455   0.      0.      0.
         0.      0.     .18182   0.      0.      0.
CONM2    117     18      0      4.5152   0.      0.      0.
         0.      0.     .18061   0.      0.      0.
CONM2    118     19      0      4.4848   0.      0.      0.
         0.      0.     .17939   0.      0.      0.
CONM2    119     20      0      4.4545   0.      0.      0.
         0.      0.     .17818   0.      0.      0.
CONM2    120     21      0      4.4242   0.      0.      0.
         0.      0.     .17697   0.      0.      0.
$ ... 24 like lines cut
$-----------------------------------------------------------------------
$ MAT1
$-----------------------------------------------------------------------
$<-----><------><------><------><------><------><------><------><------>
MAT1     6      7.1+10  2.67+10 .33     800.
        5.515+8 5.515+8 3.033+8
$-----------------------------------------------------------------------
$ GRIDs
$-----------------------------------------------------------------------
$<-----><------><------><------><------><------><------><------><------>
GRID     1              .35      0.      0.
GRID     2              .35     .5       0.
GRID     3              .35     1.       0.
GRID     4              .35     1.5      0.
GRID     5              .35     2.       0.
GRID     6              .35     2.5      0.
GRID     7              .35     3.       0.
GRID     8              .35     3.5      0.
GRID     9              .35     4.       0.
GRID     10             .35     4.5      0.
GRID     11             .35     5.       0.
GRID     12             .35     5.5      0.
GRID     13             .35     6.       0.
GRID     14             .35     6.5      0.
GRID     15             .35     7.       0.
GRID     16             .35     7.5      0.
GRID     17             .35     8.       0.
GRID     18             .35     8.5      0.
GRID     19             .35     9.       0.
GRID     20             .35     9.5      0.
$ ... 13 like lines cut
